Version 4.1
SHEET 1 1120 680
WIRE 464 16 416 16
WIRE 528 16 464 16
WIRE 464 32 464 16
WIRE 128 48 -80 48
WIRE 528 80 528 16
WIRE 416 112 416 16
WIRE 416 112 352 112
WIRE -80 128 -80 48
WIRE -80 128 -208 128
WIRE -32 128 -80 128
WIRE 80 128 48 128
WIRE 192 128 80 128
WIRE -80 144 -80 128
WIRE 448 144 352 144
WIRE 128 176 128 48
WIRE 192 176 128 176
WIRE 192 208 144 208
WIRE 448 208 448 144
WIRE 480 208 448 208
WIRE 528 208 528 160
WIRE 528 208 480 208
WIRE 144 240 144 208
FLAG 480 272 0
FLAG 464 32 0
FLAG 144 240 0
FLAG -208 128 Vout
IOPIN -208 128 Out
FLAG -80 192 0
FLAG 80 192 0
SYMBOL lib\\sym\\lm2576 272 160 R0
SYMATTR InstName X1
SYMATTR SpiceModel C:\Users\zayin\OneDrive - Syddansk Universitet\Documents\LTspice\Third Party Spice Models\LM2576_PSPICE_TRANS.lib
SYMBOL voltage 528 176 R180
WINDOW 0 24 96 Left 2
WINDOW 3 24 16 Left 2
WINDOW 123 0 0 Left 0
WINDOW 39 0 0 Left 0
SYMATTR InstName V1
SYMATTR Value 24
SYMBOL cap 464 208 R0
SYMATTR InstName C1
SYMATTR Value 100µ
SYMBOL ind -48 144 R270
WINDOW 0 32 56 VTop 2
WINDOW 3 5 56 VBottom 2
SYMATTR InstName L1
SYMBOL cap -96 128 R0
SYMATTR InstName C2
SYMATTR Value 1000µ
SYMBOL diode 64 128 R0
SYMATTR InstName D1
TEXT -312 296 Left 2 !.tran 1000
TEXT -424 448 Left 2 !.include C:\\Users\\zayin\\OneDrive - Syddansk Universitet\\Documents\\LTspice\\Third Party Spice Models\\LM2576_PSPICE_TRANS.lib
