Version 4.1
SHEET 1 880 680
SYMBOL npn2 208 80 R0
SYMATTR InstName Q1
